PCB_Project_Encoder_Addon
*SPICE Netlist generated by Advanced Sim server on 15.04.2021 16:24:02

*Schematic Netlist:

.SAVE 0


*Selected Circuit Analyses:
.TRAN 2E-8 5E-6 0 2E-8
.OP

.END
